@<TRIPOS>MOLECULE
*****
   57    61     1     0     0
SMALL
bcc


@<TRIPOS>ATOM
      1 C            0.7410    -0.2710     0.1400 c3         1 UNL       0.110700
      2 O           -0.1840     0.5430    -0.6340 os         1 UNL      -0.319900
      3 C1           0.0350     1.8990    -0.5020 ca         1 UNL       0.140100
      4 C2          -0.9030     2.9290    -0.9570 ca         1 UNL      -0.173500
      5 C3          -0.5460     4.3250    -1.3530 ca         1 UNL      -0.082500
      6 C4           0.7720     4.6950    -1.2360 ca         1 UNL      -0.040200
      7 C5           1.5400     3.6050    -0.5320 ca         1 UNL      -0.082500
      8 C6           1.3060     2.2750    -0.2860 ca         1 UNL      -0.173500
      9 N            1.3460     6.1040    -2.0130 na         1 UNL       0.128300
     10 N1           0.9100     7.2920    -1.4160 nc         1 UNL      -0.429800
     11 C7           1.8100     8.2390    -1.6980 cd         1 UNL       0.295600
     12 C8           2.7950     7.8920    -2.6310 cd         1 UNL      -0.230600
     13 C9           2.6190     6.5410    -2.8900 cc         1 UNL       0.064300
     14 N2           3.5540     5.9030    -3.7780 ns         1 UNL      -0.458100
     15 C10          3.6900     4.4890    -4.0240 c          1 UNL       0.679100
     16 O1           4.5130     4.0750    -4.7680 o          1 UNL      -0.590100
     17 C11          2.8450     3.7090    -3.0650 c5         1 UNL      -0.051700
     18 C12          1.3920     3.9380    -3.8570 c5         1 UNL      -0.074900
     19 C13          0.5760     2.7250    -3.4880 c5         1 UNL      -0.079400
     20 C14          1.4290     1.5110    -3.3890 c5         1 UNL      -0.079400
     21 C15          2.8570     2.1160    -3.4440 c5         1 UNL      -0.074900
     22 C16          3.6670     4.3610    -1.5750 ca         1 UNL      -0.077300
     23 C17          3.2170     5.4170    -0.4820 ca         1 UNL      -0.119500
     24 C18          3.5660     5.5880     0.8510 ca         1 UNL      -0.125000
     25 C19          4.5850     4.7960     1.2190 ca         1 UNL       0.014400
     26 C20          5.1860     3.9120     0.2640 ca         1 UNL      -0.125000
     27 C21          4.7550     3.6660    -1.0990 ca         1 UNL      -0.119500
     28 Cl           4.9970     4.8510     2.8790 cl         1 UNL      -0.085400
     29 C22          3.6810     9.0230    -3.0830 c5         1 UNL      -0.199300
     30 S            3.3270    10.3590    -1.8910 s6         1 UNL       1.276000
     31 O2           4.3370    10.3200    -0.8500 o          1 UNL      -0.640800
     32 O3           3.0430    11.5830    -2.6140 o          1 UNL      -0.640800
     33 C23          1.7770     9.6660    -1.2510 c5         1 UNL      -0.299900
     34 H            0.4760    -1.3220     0.0260 h1         1 UNL       0.049033
     35 H1           0.6540     0.0310     1.1870 h1         1 UNL       0.049033
     36 H2           1.8070    -0.2270    -0.1560 h1         1 UNL       0.049033
     37 H3          -1.8430     2.5600    -1.3530 ha         1 UNL       0.154000
     38 H4          -1.1690     4.8930    -2.0460 ha         1 UNL       0.148500
     39 H5           2.5240     3.5850    -0.0980 ha         1 UNL       0.148500
     40 H6           2.2050     1.6340    -0.2140 ha         1 UNL       0.154000
     41 H7           4.3350     6.4160    -4.1880 hn         1 UNL       0.329500
     42 H8           0.8590     4.8700    -3.6890 hc         1 UNL       0.061450
     43 H9           1.4380     3.9200    -4.9540 hc         1 UNL       0.061450
     44 H10         -0.4980     2.6840    -3.7080 hc         1 UNL       0.046450
     45 H11          0.5590     2.8550    -2.4670 hc         1 UNL       0.046450
     46 H12          1.0460     0.7690    -4.0950 hc         1 UNL       0.046450
     47 H13          1.3770     0.9610    -2.4450 hc         1 UNL       0.046450
     48 H14          3.1030     1.9630    -4.5020 hc         1 UNL       0.061450
     49 H15          3.5210     1.5380    -2.8100 hc         1 UNL       0.061450
     50 H16          2.2020     5.7820    -0.2870 ha         1 UNL       0.150000
     51 H17          2.8550     6.0790     1.5480 ha         1 UNL       0.155000
     52 H18          6.0130     3.3250     0.6370 ha         1 UNL       0.155000
     53 H19          5.1860     2.8500    -1.6690 ha         1 UNL       0.150000
     54 H20          3.3400     9.3960    -4.0550 h1         1 UNL       0.135700
     55 H21          4.7610     8.8520    -3.0890 h1         1 UNL       0.135700
     56 H22          1.7470     9.8280    -0.1730 h1         1 UNL       0.135200
     57 H23          0.9680    10.1800    -1.7700 h1         1 UNL       0.135200
@<TRIPOS>BOND
     1     1     2 1   
     2     2     3 1   
     3     3     4 ar  
     4     4     5 ar  
     5     5     6 ar  
     6     6     7 ar  
     7     7     8 ar  
     8     3     8 ar  
     9     6     9 1   
    10     9    10 1   
    11    10    11 2   
    12    11    12 1   
    13    12    13 2   
    14     9    13 1   
    15    13    14 1   
    16    14    15 1   
    17    15    16 2   
    18    15    17 1   
    19    17    18 1   
    20    18    19 1   
    21    19    20 1   
    22    20    21 1   
    23    17    21 1   
    24    17    22 1   
    25    22    23 ar  
    26    23    24 ar  
    27    24    25 ar  
    28    25    26 ar  
    29    26    27 ar  
    30    22    27 ar  
    31    25    28 1   
    32    12    29 1   
    33    29    30 1   
    34    30    31 2   
    35    30    32 2   
    36    30    33 1   
    37    11    33 1   
    38     1    34 1   
    39     1    35 1   
    40     1    36 1   
    41     4    37 1   
    42     5    38 1   
    43     7    39 1   
    44     8    40 1   
    45    14    41 1   
    46    18    42 1   
    47    18    43 1   
    48    19    44 1   
    49    19    45 1   
    50    20    46 1   
    51    20    47 1   
    52    21    48 1   
    53    21    49 1   
    54    23    50 1   
    55    24    51 1   
    56    26    52 1   
    57    27    53 1   
    58    29    54 1   
    59    29    55 1   
    60    33    56 1   
    61    33    57 1   
@<TRIPOS>SUBSTRUCTURE
     1 UNL         1 TEMP              0 ****  ****    0 ROOT
