@<TRIPOS>MOLECULE
*****
 57 61 0 0 0
SMALL
GASTEIGER

@<TRIPOS>ATOM
      1 C           0.7412   -0.2712    0.1404 C.3     1  UNL1        0.0788
      2 O          -0.1836    0.5432   -0.6336 O.3     1  UNL1       -0.4951
      3 C           0.0351    1.8991   -0.5024 C.ar    1  UNL1        0.1202
      4 C          -0.9033    2.9292   -0.9570 C.ar    1  UNL1       -0.0179
      5 C          -0.5459    4.3249   -1.3531 C.ar    1  UNL1       -0.0327
      6 C           0.7722    4.6954   -1.2362 C.ar    1  UNL1        0.0677
      7 C           1.5397    3.6051   -0.5318 C.ar    1  UNL1       -0.0327
      8 C           1.3061    2.2749   -0.2864 C.ar    1  UNL1       -0.0179
      9 N           1.3456    6.1038   -2.0128 N.ar    1  UNL1       -0.2177
     10 N           0.9101    7.2919   -1.4158 N.ar    1  UNL1       -0.1676
     11 C           1.8095    8.2387   -1.6978 C.ar    1  UNL1        0.0909
     12 C           2.7950    7.8917   -2.6310 C.ar    1  UNL1        0.0381
     13 C           2.6187    6.5408   -2.8901 C.ar    1  UNL1        0.1336
     14 N           3.5540    5.9032   -3.7779 N.am    1  UNL1       -0.2693
     15 C           3.6897    4.4886   -4.0239 C.2     1  UNL1        0.2288
     16 O           4.5131    4.0753   -4.7679 O.2     1  UNL1       -0.2745
     17 C           2.8445    3.7092   -3.0650 C.3     1  UNL1        0.0721
     18 C           1.3922    3.9377   -3.8568 C.3     1  UNL1       -0.0350
     19 C           0.5756    2.7246   -3.4884 C.3     1  UNL1       -0.0518
     20 C           1.4295    1.5106   -3.3890 C.3     1  UNL1       -0.0518
     21 C           2.8567    2.1161   -3.4440 C.3     1  UNL1       -0.0350
     22 C           3.6672    4.3608   -1.5745 C.ar    1  UNL1       -0.0324
     23 C           3.2170    5.4168   -0.4816 C.ar    1  UNL1       -0.0562
     24 C           3.5662    5.5878    0.8512 C.ar    1  UNL1       -0.0431
     25 C           4.5849    4.7965    1.2194 C.ar    1  UNL1        0.0410
     26 C           5.1861    3.9123    0.2635 C.ar    1  UNL1       -0.0431
     27 C           4.7546    3.6656   -1.0992 C.ar    1  UNL1       -0.0562
     28 CL          4.9966    4.8511    2.8786 Cl      1  UNL1       -0.0835
     29 C           3.6807    9.0227   -3.0835 C.3     1  UNL1        0.0961
     30 S           3.3269   10.3589   -1.8908 S.O2    1  UNL1       -0.0212
     31 O           4.3368   10.3205   -0.8497 O.2     1  UNL1       -0.1737
     32 O           3.0430   11.5832   -2.6135 O.2     1  UNL1       -0.1737
     33 C           1.7773    9.6658   -1.2507 C.3     1  UNL1        0.1102
     34 H           0.4759   -1.3219    0.0258 H       1  UNL1        0.0660
     35 H           0.6543    0.0312    1.1871 H       1  UNL1        0.0660
     36 H           1.8069   -0.2266   -0.1563 H       1  UNL1        0.0660
     37 H          -1.8425    2.5599   -1.3532 H       1  UNL1        0.0655
     38 H          -1.1695    4.8928   -2.0465 H       1  UNL1        0.0640
     39 H           2.5243    3.5849   -0.0975 H       1  UNL1        0.0640
     40 H           2.2046    1.6338   -0.2139 H       1  UNL1        0.0655
     41 H           4.3351    6.4158   -4.1876 H       1  UNL1        0.1563
     42 H           0.8586    4.8696   -3.6888 H       1  UNL1        0.0278
     43 H           1.4375    3.9195   -4.9542 H       1  UNL1        0.0278
     44 H          -0.4985    2.6839   -3.7078 H       1  UNL1        0.0266
     45 H           0.5591    2.8554   -2.4675 H       1  UNL1        0.0266
     46 H           1.0456    0.7693   -4.0945 H       1  UNL1        0.0266
     47 H           1.3772    0.9608   -2.4453 H       1  UNL1        0.0266
     48 H           3.1026    1.9628   -4.5017 H       1  UNL1        0.0278
     49 H           3.5214    1.5379   -2.8101 H       1  UNL1        0.0278
     50 H           2.2017    5.7815   -0.2874 H       1  UNL1        0.0621
     51 H           2.8550    6.0789    1.5479 H       1  UNL1        0.0632
     52 H           6.0127    3.3254    0.6367 H       1  UNL1        0.0632
     53 H           5.1856    2.8496   -1.6693 H       1  UNL1        0.0621
     54 H           3.3395    9.3962   -4.0549 H       1  UNL1        0.0551
     55 H           4.7606    8.8522   -3.0888 H       1  UNL1        0.0551
     56 H           1.7468    9.8279   -0.1731 H       1  UNL1        0.0566
     57 H           0.9676   10.1804   -1.7696 H       1  UNL1        0.0566
@<TRIPOS>BOND
     1     1     2    1
     2     2     3    1
     3     3     4   ar
     4     4     5   ar
     5     5     6   ar
     6     6     7   ar
     7     7     8   ar
     8     3     8   ar
     9     6     9    1
    10     9    10   ar
    11    10    11   ar
    12    11    12   ar
    13    12    13   ar
    14     9    13   ar
    15    13    14    1
    16    14    15   am
    17    15    16    2
    18    15    17    1
    19    17    18    1
    20    18    19    1
    21    19    20    1
    22    20    21    1
    23    17    21    1
    24    17    22    1
    25    22    23   ar
    26    23    24   ar
    27    24    25   ar
    28    25    26   ar
    29    26    27   ar
    30    22    27   ar
    31    25    28    1
    32    12    29    1
    33    29    30    1
    34    30    31    2
    35    30    32    2
    36    30    33    1
    37    11    33    1
    38     1    34    1
    39     1    35    1
    40     1    36    1
    41     4    37    1
    42     5    38    1
    43     7    39    1
    44     8    40    1
    45    14    41    1
    46    18    42    1
    47    18    43    1
    48    19    44    1
    49    19    45    1
    50    20    46    1
    51    20    47    1
    52    21    48    1
    53    21    49    1
    54    23    50    1
    55    24    51    1
    56    26    52    1
    57    27    53    1
    58    29    54    1
    59    29    55    1
    60    33    56    1
    61    33    57    1
